10
Coordinates from ORCA-job 4-tct_opt
  N   0.07859182907989     -1.94545677297856      0.00000101323271
  C   -0.77416310729227     -0.77455452600071     -0.00000169515303
  H   0.70291722690387     -1.92081063264792      0.81592617964471
  H   0.70291068848103     -1.92081893207429     -0.81592941258642
  C   -0.13773799496510      0.61767648829362     -0.00001258412655
  H   -1.45693866226486     -0.79361164523626     -0.87844818931422
  H   -1.45693132550437     -0.79360238933958      0.87845085185292
  O   -0.75872529154185      1.66246930143987      0.00000243730785
  O   1.22219247051611      0.56597704539454      0.00000209006987
  H   1.51452416658756      1.50406206314928      0.00000930907217
