10
Coordinates from ORCA-job 5-gct_opt
  N   0.05741641460735     -1.91465229789158      0.18250772463181
  C   -0.74219231529580     -0.72213587902045     -0.04606022005477
  H   0.86465914609704     -1.91771268083257     -0.45292584654744
  H   -0.49445325547345     -2.75094345921512     -0.04190852494739
  C   0.04390409340203      0.56966973078745      0.10168122563934
  H   -1.22789297721163     -0.63764975757831     -1.05756506633413
  H   -1.57255004580747     -0.66244809926060      0.68687385349500
  O   -0.42169657676735      1.63550306576326      0.45258685639168
  O   1.34063856574225      0.42083172783056     -0.27790598247448
  H   1.74704695070704      1.30889764941736     -0.17366401979960
