10
Coordinates from ORCA-job 6-ttc_opt
  N   0.02964353663985     -1.94568688089952      0.00000434746309
  C   -0.81302763544847     -0.77197958985952     -0.00000836832740
  H   0.66098028451838     -1.89662892118630      0.81121723750120
  H   0.66097903561627     -1.89664696172578     -0.81121063468386
  C   -0.07034101115998      0.57645822131243     -0.00002640042470
  H   -1.49111143269371     -0.79094630878778     -0.88567212540525
  H   -1.49110962999920     -0.79092595761924      0.88565751992513
  O   1.13549350746076      0.67788686017187      0.00000886828125
  O   -0.86232430715983      1.68455348400895      0.00001156618799
  H   -1.80159234777408      1.41005605458489      0.00001798948255
